3
Properties=species:S:1:pos:R:3:forces_uncertainty:R:3:forces:R:3 E_dftbplus_d4=-221.94385707541198 energy_uncertainty=0.1603104179989306 energy=-221.87105094069238 pbc="F F F"
O       -1.16954488      -0.00000000       0.00000000     111.71334429       0.00000000       0.00000000      -7.31536008       0.00000000       0.00000000
C        0.00000000       0.00000000      -0.00000000     109.91214616       0.00000000       0.00000000      10.02511684       0.00000000       0.00000000
O        2.16954488       0.00000000       0.00000000      10.11950003       0.00000000       0.00000000      -2.70975676       0.00000000       0.00000000
3
Properties=species:S:1:pos:R:3:forces_uncertainty:R:3:forces:R:3 E_dftbplus_d4=-221.824940050398 energy_uncertainty=0.15362723508270007 energy=-221.7526814619821 pbc="F F F"
O       -1.16954488      -0.00000000       0.00000000     111.24134892       0.00000000       0.00000000      -7.52347317       0.00000000       0.00000000
C        0.00000000       0.00000000      -0.00000000     110.20264439       0.00000000       0.00000000      10.01950621       0.00000000       0.00000000
O        2.21499943       0.00000000       0.00000000       7.99459285       0.00000000       0.00000000      -2.49603304       0.00000000       0.00000000
